IEEE30_DSS/IEEE_30_Power_seq_kVA.txt

SYMMETRICAL COMPONENT POWERS BY CIRCUIT ELEMENT (first 3 phases)                                     Excess Power

Element              Term    P1(kW)   Q1(kvar)       P2         Q2      P0      Q0       P_Norm      Q_Norm     P_Emerg    Q_Emerg

"Vsource.SOURCE"      1  -260975.0    21807.5       -0.0        0.0    -0.0    -0.0
"Vsource.SOURCE"      2        0.0        0.0        0.0        0.0     0.0     0.0
"Line.1-2"            1   173342.6   -26058.7        0.0       -0.0     0.0     0.0    77488.2   -11678.8    29560.1    -4455.2
"Line.1-2"            2  -168116.9    35855.5       -0.0        0.0    -0.0     0.0
"Line.1-3"            1    87632.4     4251.1        0.0        0.0     0.0     0.0        0.0        0.0        0.0        0.0
"Line.1-3"            2   -84525.9     2683.3       -0.0        0.0    -0.0     0.0
"Line.2-4"            1    43688.4     5150.7        0.0        0.0     0.0    -0.0        0.0        0.0        0.0        0.0
"Line.2-4"            2   -42666.9    -5935.4       -0.0       -0.0    -0.0     0.0
"Line.3-4"            1    82125.9    -3883.3        0.0       -0.0     0.0    -0.0        0.0        0.0        0.0        0.0
"Line.3-4"            2   -81270.7     5470.2       -0.0        0.0    -0.0     0.0
"Line.2-5"            1    82309.0     3837.1        0.0       -0.0     0.0    -0.0        0.0        0.0        0.0        0.0
"Line.2-5"            2   -79368.7     4103.7       -0.0        0.0    -0.0     0.0
"Line.2-6"            1    60417.8     1898.6        0.0       -0.0     0.0    -0.0        0.0        0.0        0.0        0.0
"Line.2-6"            2   -58470.2       57.1       -0.0        0.0    -0.0     0.0
"Line.4-6"            1    72108.6   -15339.4        0.0       -0.0     0.0    -0.0        0.0        0.0        0.0        0.0
"Line.4-6"            2   -71479.2    16608.6       -0.0        0.0    -0.0     0.0
"Line.5-7"            1   -14845.8    10934.5       -0.0        0.0    -0.0     0.0        0.0        0.0        0.0        0.0
"Line.5-7"            2    15010.2   -12581.6        0.0       -0.0     0.0    -0.0
"Line.6-7"            1    38194.1    -2228.8        0.0       -0.0     0.0    -0.0        0.0        0.0        0.0        0.0
"Line.6-7"            2   -37812.1     1680.7       -0.0        0.0    -0.0     0.0
"Line.6-8"            1    29556.7    -6600.5        0.0       -0.0     0.0    -0.0        0.0        0.0        0.0        0.0
"Line.6-8"            2   -29449.6     6057.3       -0.0        0.0    -0.0     0.0
"Line.12-14"          1     7866.3     2422.3        0.0        0.0     0.0    -0.0        0.0        0.0        0.0        0.0
"Line.12-14"          2    -7791.8    -2267.4       -0.0       -0.0    -0.0     0.0
"Line.12-15"          1    17910.7     6881.2        0.0        0.0     0.0    -0.0        0.0        0.0        0.0        0.0
"Line.12-15"          2   -17692.9    -6452.3       -0.0       -0.0    -0.0     0.0
"Line.12-16"          1     7254.2     3450.4        0.0        0.0     0.0    -0.0        0.0        0.0        0.0        0.0
"Line.12-16"          2    -7199.7    -3335.8       -0.0       -0.0    -0.0     0.0
"Line.14-15"          1     1592.4      667.6        0.0        0.0     0.0    -0.0        0.0        0.0        0.0        0.0
"Line.14-15"          2    -1586.3     -662.1       -0.0       -0.0    -0.0     0.0
"Line.16-17"          1     3699.9     1536.0        0.0        0.0     0.0    -0.0        0.0        0.0        0.0        0.0
"Line.16-17"          2    -3692.2    -1507.7       -0.0       -0.0    -0.0     0.0
"Line.15-18"          1     6028.3     1648.5        0.0        0.0     0.0    -0.0        0.0        0.0        0.0        0.0
"Line.15-18"          2    -5989.4    -1569.3       -0.0       -0.0    -0.0     0.0
"Line.18-19"          1     2789.6      669.4        0.0        0.0     0.0    -0.0        0.0        0.0        0.0        0.0
"Line.18-19"          2    -2784.6     -659.3       -0.0       -0.0    -0.0     0.0
"Line.19-20"          1    -6714.9    -2740.5       -0.0       -0.0    -0.0     0.0        0.0        0.0        0.0        0.0
"Line.19-20"          2     6731.9     2774.5        0.0        0.0     0.0    -0.0
"Line.10-20"          1     9012.8     3655.3        0.0        0.0     0.0    -0.0        0.0        0.0        0.0        0.0
"Line.10-20"          2    -8931.8    -3474.4       -0.0       -0.0    -0.0     0.0
"Line.10-17"          1     5321.3     4328.4        0.0        0.0     0.0     0.0        0.0        0.0        0.0        0.0
"Line.10-17"          2    -5307.4    -4292.1       -0.0       -0.0    -0.0    -0.0
"Line.10-21"          1    15783.8     9996.4        0.0        0.0     0.0    -0.0        0.0        0.0        0.0        0.0
"Line.10-21"          2   -15672.7    -9757.2       -0.0       -0.0    -0.0     0.0
"Line.10-22"          1     7617.2     4590.6        0.0        0.0     0.0    -0.0        0.0        0.0        0.0        0.0
"Line.10-22"          2    -7564.5    -4482.2       -0.0       -0.0    -0.0     0.0
"Line.21-22"          1    -1826.8    -1442.5       -0.0       -0.0    -0.0    -0.0        0.0        0.0        0.0        0.0
"Line.21-22"          2     1827.4     1443.7        0.0        0.0     0.0     0.0
"Line.15-23"          1     5051.7     2966.1        0.0        0.0     0.0    -0.0        0.0        0.0        0.0        0.0
"Line.15-23"          2    -5019.8    -2901.8       -0.0       -0.0    -0.0     0.0
"Line.22-24"          1     5737.1     3038.4        0.0        0.0     0.0    -0.0        0.0        0.0        0.0        0.0
"Line.22-24"          2    -5691.8    -2967.8       -0.0       -0.0    -0.0     0.0
"Line.23-24"          1     1820.0     1301.9        0.0        0.0     0.0    -0.0        0.0        0.0        0.0        0.0
"Line.23-24"          2    -1813.8    -1289.1       -0.0       -0.0    -0.0     0.0
"Line.24-25"          1    -1194.1     2048.4       -0.0        0.0    -0.0     0.0        0.0        0.0        0.0        0.0
"Line.24-25"          2     1204.3    -2030.7        0.0       -0.0     0.0    -0.0
"Line.25-26"          1     3544.6     2366.6        0.0        0.0     0.0    -0.0        0.0        0.0        0.0        0.0
"Line.25-26"          2    -3500.0    -2300.0       -0.0       -0.0    -0.0     0.0
"Line.25-27"          1    -4748.9     -336.0       -0.0       -0.0    -0.0     0.0        0.0        0.0        0.0        0.0
"Line.25-27"          2     4772.8      381.6        0.0        0.0     0.0    -0.0
"Line.27-29"          1     6190.0     1668.8        0.0        0.0     0.0    -0.0        0.0        0.0        0.0        0.0
"Line.27-29"          2    -6103.7    -1505.9       -0.0       -0.0    -0.0     0.0
"Line.27-30"          1     7092.0     1662.8        0.0        0.0     0.0    -0.0        0.0        0.0        0.0        0.0
"Line.27-30"          2    -6929.8    -1357.5       -0.0       -0.0    -0.0     0.0
"Line.29-30"          1     3703.7      605.9        0.0        0.0     0.0    -0.0        0.0        0.0        0.0        0.0
"Line.29-30"          2    -3670.2     -542.5       -0.0       -0.0    -0.0     0.0
"Line.8-28"           1     -550.6     -647.2       -0.0       -0.0     0.0     0.0        0.0        0.0        0.0        0.0
"Line.8-28"           2      552.2    -3698.3        0.0       -0.0    -0.0    -0.0
"Line.6-28"           1    18664.8      181.7        0.0       -0.0     0.0    -0.0        0.0        0.0        0.0        0.0
"Line.6-28"           2   -18607.0    -1299.5       -0.0        0.0    -0.0     0.0
"Transformer.6-9"     1    27703.4    -8153.9        0.0       -0.0     0.0    -0.0        0.0        0.0        0.0        0.0
"Transformer.6-9"     2   -27703.4     9778.9       -0.0        0.0    -0.0     0.0
"Transformer.6-10"    1    15830.4      135.9        0.0       -0.0     0.0    -0.0        0.0        0.0        0.0        0.0
"Transformer.6-10"    2   -15830.4     1145.6       -0.0        0.0    -0.0     0.0
"Transformer.9-11"    1       -1.1   -15525.2       -0.0       -0.0    -0.0    -0.0        0.0        0.0        0.0        0.0
"Transformer.9-11"    2        1.1    15979.0        0.0        0.0     0.0     0.0
"Transformer.9-10"    1    27704.5     5746.3        0.0        0.0     0.0    -0.0        0.0        0.0        0.0        0.0
"Transformer.9-10"    2   -27704.5    -4949.2       -0.0       -0.0    -0.0     0.0
"Transformer.4-12"    1    44229.0    14204.6        0.0        0.0     0.0    -0.0        0.0        0.0        0.0        0.0
"Transformer.4-12"    2   -44229.0    -9522.4       -0.0       -0.0    -0.0     0.0
"Transformer.12-13"   1       -1.0   -10730.7       -0.0       -0.0    -0.0    -0.0        0.0        0.0        0.0        0.0
"Transformer.12-13"   2        1.0    10874.8        0.0        0.0     0.0     0.0
"Transformer.28-27"   1    18054.8     4997.8        0.0        0.0     0.0    -0.0        0.0        0.0        0.0        0.0
"Transformer.28-27"   2   -18054.8    -3713.3       -0.0       -0.0    -0.0     0.0
"Capacitor.B10"       1        0.0   -20767.1        0.0       -0.0    -0.0    -0.0        0.0        0.0        0.0        0.0
"Capacitor.B10"       2        0.0        0.0        0.0        0.0     0.0     0.0
"Capacitor.B24"       1        0.0    -4491.2        0.0       -0.0     0.0    -0.0        0.0        0.0        0.0        0.0
"Capacitor.B24"       2        0.0        0.0        0.0        0.0     0.0     0.0
"Load.B2"             1    21699.1    12699.7        0.0        0.0     0.0     0.0
"Load.B3"             1     2400.0     1200.0        0.0        0.0     0.0     0.0
"Load.B4"             1     7600.0     1600.0        0.0        0.0     0.0    -0.0
"Load.B5"             1    94208.3    18999.9        0.0        0.0     0.0    -0.0
"Load.B7"             1    22801.0    10900.2        0.0        0.0     0.0    -0.0
"Load.B8"             1    30001.0    30000.5        0.0        0.0     0.0     0.0
"Load.B10"            1     5799.9     1999.9        0.0        0.0     0.0    -0.0
"Load.B12"            1    11199.4     7499.7        0.0        0.0     0.0     0.0
"Load.B14"            1     6199.7     1599.9        0.0        0.0     0.0    -0.0
"Load.B15"            1     8199.7     2499.9        0.0        0.0     0.0    -0.0
"Load.B16"            1     3499.9     1799.9        0.0        0.0     0.0    -0.0
"Load.B17"            1     8999.9     5799.8        0.0        0.0     0.0    -0.0
"Load.B18"            1     3199.9      900.0        0.0        0.0     0.0    -0.0
"Load.B19"            1     9499.8     3399.8        0.0        0.0     0.0    -0.0
"Load.B20"            1     2200.0      700.0        0.0        0.0     0.0    -0.0
"Load.B21"            1    17499.9    11199.7        0.0        0.0     0.0    -0.0
"Load.B23"            1     3199.9     1599.9        0.0        0.0     0.0    -0.0
"Load.B24"            1     8699.9     6699.8        0.0        0.0     0.0    -0.0
"Load.B26"            1     3500.0     2300.0        0.0        0.0     0.0    -0.0
"Load.B29"            1     2400.0      900.0        0.0        0.0     0.0    -0.0
"Load.B30"            1    10600.0     1899.9        0.0        0.0     0.0    -0.0
"Generator.B2"        1   -39998.0   -59442.1       -0.0       -0.0    -0.0    -0.0
"Generator.B5"        1       -1.6   -34041.4       -0.0       -0.0    -0.0    -0.0
"Generator.B8"        1       -1.3   -35411.6       -0.0       -0.0    -0.0    -0.0
"Generator.B11"       1       -1.1   -15979.0       -0.0       -0.0    -0.0    -0.0
"Generator.B13"       1       -1.0   -10874.8       -0.0       -0.0    -0.0    -0.0

Total Circuit Losses = 17556.4 +j 32999.4
